data/sanity_checks/insufficient_gen/Line.dss
New "Line.slackline" bus1=sourcebus.1.2.3 bus2=primary.1.2.3 Seasons=1 Ratings=[400,] normamps=400 emergamps=600 length=100 r1=100 x1=100
New "Line.switch1" bus1=primary.1.2.3 bus2=busa.1.2.3 linecode=main Seasons=1 Ratings=[400,] normamps=400 emergamps=600 length=0.001 Switch=True enabled=true
New "Line.switch2" bus1=primary.1.2.3 bus2=busb.1.2.3 linecode=main Seasons=1 Ratings=[400,] normamps=400 emergamps=600 length=0.001 Switch=True enabled=true
